Circuit: * C:\Users\austi\OneDrive\Documents\LTspiceXVII\(EE 110L-02)\Lab10 (Final Project)\Lab10.asc

WARNING: Less than two connections to node PWM.  This node is used by V4.
WARNING: Less than two connections to node D[X].  This node is used by B2.
WARNING: Less than two connections to node D[OUT].  This node is used by B3.
WARNING: Less than two connections to node D[CHECK].  This node is used by B4.
WARNING: Less than two connections to node VP.  This node is used by D1.
Direct Newton iteration failed to find .op point.  (Use ".option noopiter" to skip.)
Starting Gmin stepping
Gmin = 10
Gmin = 1.07374
Gmin = 0.115292
Gmin = 0.0123794
Gmin = 0.00132923
Gmin = 0.000142725
Gmin = 1.5325e-005
Gmin = 1.6455e-006
Gmin = 1.76685e-007
Gmin = 1.89714e-008
Gmin = 2.03704e-009
Gmin = 2.18725e-010
Gmin = 2.34854e-011
Gmin = 2.52173e-012
Gmin = 2.70769e-013
Gmin = 0
Gmin stepping succeeded in finding the operating point.

.step f_pwm=200000
.step f_pwm=251785
.step f_pwm=316979
.step f_pwm=399052
.step f_pwm=502377
.step f_pwm=632456
.step f_pwm=796214
.step f_pwm=1e+006



Date: Fri May 08 19:11:15 2020
Total elapsed time: 0.833 seconds.

tnom = 27
temp = 27
method = trap
totiter = 440
traniter = 0
tranpoints = 0
accept = 0
rejected = 0
matrix size = 66
fillins = 61
solver = Normal
Matrix Compiler1:     399 opcodes
Matrix Compiler2: off  [0.5]/1.1/0.7

